2024_89_CemigReconfigurationCases/1_SEsCemig/MDH06/MDH06SegmentosMT.dss
new line.SMT_10893296 bus1=BMT179987831.1,bus2=BMT7139869B.1,Phases=1,Linecode=CAB103_3_1_1,Length=0.026426000,Units=km
new line.SMT_10893303 bus1=BMT7139869B.1,bus2=BMT7139883B.1,Phases=1,Linecode=CAB103_3_1_1,Length=0.073044000,Units=km
new line.SMT_10893310 bus1=BMT7139883B.1,bus2=BMT7139897B.1,Phases=1,Linecode=CAB103_3_1_1,Length=0.035855000,Units=km
new line.SMT_10893317 bus1=BMT7139897B.1,bus2=BMT179987834.1,Phases=1,Linecode=CAB103_3_1_1,Length=0.039569000,Units=km
new line.SMT_1128702 bus1=BMT183771979.1.2.3,bus2=BMT179220064.1.2.3,Phases=3,Linecode=CABA08_3_3_3,Length=0.030025000,Units=km
new line.SMT_1128709 bus1=BMT183771979.1.2.3,bus2=BMT179220062.1.2.3,Phases=3,Linecode=CABA08_3_3_3,Length=0.032659000,Units=km
new line.SMT_1128737 bus1=BMT179220072.1.2.3,bus2=BMT179220073.1.2.3,Phases=3,Linecode=CABA08_3_3_3,Length=0.040717000,Units=km
new line.SMT_1128751 bus1=BMT179220073.1.2.3,bus2=BMT753341B.1.2.3,Phases=3,Linecode=CABA08_3_3_3,Length=0.038481000,Units=km
new line.SMT_1128758 bus1=BMT179220073.1.2.3,bus2=BMT179220075.1.2.3,Phases=3,Linecode=CABA08_3_3_3,Length=0.032766000,Units=km
new line.SMT_1128772 bus1=BMT753341B.1.2.3,bus2=BMT179220074.1.2.3,Phases=3,Linecode=CABA08_3_3_3,Length=0.037226000,Units=km
new line.SMT_1128793 bus1=BMT179220074.1.2.3,bus2=BMT179220076.1.2.3,Phases=3,Linecode=CABA08_3_3_3,Length=0.034141000,Units=km
new line.SMT_1128814 bus1=BMT179220076.1.2.3,bus2=BMT179220078.1.2.3,Phases=3,Linecode=CABA08_3_3_3,Length=0.016648000,Units=km
new line.SMT_1128821 bus1=BMT753362B.1.2.3,bus2=BMT179220079.1.2.3,Phases=3,Linecode=CABA08_3_3_3,Length=0.033296000,Units=km
new line.SMT_1128828 bus1=BMT179220081.1.2.3,bus2=BMT179220097.1.2.3,Phases=3,Linecode=CABA08_3_3_3,Length=0.040322000,Units=km
new line.SMT_1128870 bus1=BMT179220097.1.2.3,bus2=BMT753691B.1.2.3,Phases=3,Linecode=CABA08_3_3_3,Length=0.034995000,Units=km
new line.SMT_1128877 bus1=BMT179220097.1.2.3,bus2=BMT179220099.1.2.3,Phases=3,Linecode=CABA06_3_3_3,Length=0.040322000,Units=km
new line.SMT_1128884 bus1=BMT179220097.1.2.3,bus2=BMT179220100.1.2.3,Phases=3,Linecode=CABA06_3_3_3,Length=0.010820000,Units=km
new line.SMT_1128912 bus1=BMT753418B.1.2.3,bus2=BMT179987467.1.2.3,Phases=3,Linecode=CABA06_3_3_3,Length=0.026084000,Units=km
new line.SMT_1128926 bus1=BMT753432B.1.2.3,bus2=BMT179987468.1.2.3,Phases=3,Linecode=CABA06_3_3_3,Length=0.014426000,Units=km
new line.SMT_1128933 bus1=BMT179987467.1.2.3,bus2=BMT753432B.1.2.3,Phases=3,Linecode=CABA06_3_3_3,Length=0.039470000,Units=km
new line.SMT_1128940 bus1=BMT179987467.1.2.3,bus2=BMT754020B.1.2.3,Phases=3,Linecode=CABA06_3_3_3,Length=0.031393000,Units=km
new line.SMT_1128947 bus1=BMT179220686.1.2.3,bus2=BMT179220687.1.2.3,Phases=3,Linecode=CABA07_3_3_3,Length=0.043944000,Units=km
new line.SMT_1128961 bus1=BMT753467B.1.2.3,bus2=BMT753460B.1.2.3,Phases=3,Linecode=CABA06_3_3_3,Length=0.019422000,Units=km
new line.SMT_1128975 bus1=BMT179220684.1.2.3,bus2=BMT753467B.1.2.3,Phases=3,Linecode=CABA06_3_3_3,Length=0.042556000,Units=km
new line.SMT_1128982 bus1=BMT179220681.1.2.3,bus2=BMT179220682.1.2.3,Phases=3,Linecode=CABA07_3_3_3,Length=0.036725000,Units=km
new line.SMT_1128989 bus1=BMT179220681.1.2.3,bus2=BMT179220683.1.2.3,Phases=3,Linecode=CABA06_3_3_3,Length=0.034009000,Units=km
new line.SMT_1128996 bus1=BMT179220681.1.2.3,bus2=BMT753495B.1.2.3,Phases=3,Linecode=CABA08_3_3_3,Length=0.035857000,Units=km
new line.SMT_1129017 bus1=BMT179220688.1.2.3,bus2=BMT179220689.1.2.3,Phases=3,Linecode=CABA06_3_3_3,Length=0.030537000,Units=km
new line.SMT_1129031 bus1=BMT753495B.1.2.3,bus2=BMT179220680.1.2.3,Phases=3,Linecode=CABA08_3_3_3,Length=0.047023000,Units=km
new line.SMT_1129045 bus1=BMT179220680.1.2.3,bus2=BMT753509B.1.2.3,Phases=3,Linecode=CABA08_3_3_3,Length=0.040828000,Units=km
new line.SMT_1129059 bus1=BMT753509B.1.2.3,bus2=BMT179220679.1.2.3,Phases=3,Linecode=CABA08_3_3_3,Length=0.040828000,Units=km
new line.SMT_1129073 bus1=BMT179220674.1.2.3,bus2=BMT179220673.1.2.3,Phases=3,Linecode=CABA08_3_3_3,Length=0.040322000,Units=km
new line.SMT_1129087 bus1=BMT179220673.1.2.3,bus2=BMT179220672.1.2.3,Phases=3,Linecode=CABA08_3_3_3,Length=0.024604000,Units=km
new line.SMT_1129094 bus1=BMT179220673.1.2.3,bus2=BMT756148B.1.2.3,Phases=3,Linecode=CABA08_3_3_3,Length=0.028310000,Units=km
new line.SMT_1129115 bus1=BMT179220408.1.2.3,bus2=BMT179220409.1.2.3,Phases=3,Linecode=CABA08_3_3_3,Length=0.020597000,Units=km
new line.SMT_1129136 bus1=BMT179220114.1.2.3,bus2=BMT179220115.1.2.3,Phases=3,Linecode=CABA08_3_3_3,Length=0.073559000,Units=km
new line.SMT_1129157 bus1=BMT179220140.1.2.3,bus2=BMT753635B.1.2.3,Phases=3,Linecode=CAB103_3_3_3,Length=0.019931000,Units=km
new line.SMT_1129171 bus1=BMT179220130.1.2.3,bus2=BMT753572B.1.2.3,Phases=3,Linecode=CABA06_3_3_3,Length=0.044733000,Units=km
new line.SMT_1129178 bus1=BMT179220130.1.2.3,bus2=BMT3687412B.1.2.3,Phases=3,Linecode=CABA06_3_3_3,Length=0.018363000,Units=km
new line.SMT_1129192 bus1=BMT753572B.1.2.3,bus2=BMT179220131.1.2.3,Phases=3,Linecode=CABA06_3_3_3,Length=0.044430000,Units=km
new line.SMT_1129234 bus1=BMT179220115.1.2.3,bus2=BMT179220117.1.2.3,Phases=3,Linecode=CABA08_3_3_3,Length=0.023860000,Units=km
new line.SMT_1129241 bus1=BMT179220115.1.2.3,bus2=BMT3850568B.1.2.3,Phases=3,Linecode=CABA08_3_3_3,Length=0.029538000,Units=km
new line.SMT_1129255 bus1=BMT179220118.1.2.3,bus2=BMT179220119.1.2.3,Phases=3,Linecode=CABA06_3_3_3,Length=0.037600000,Units=km
new line.SMT_10926966 bus1=BMT179220574.1.2.3,bus2=BMT179220575.1.2.3,Phases=3,Linecode=CABA06_3_3_3,Length=0.030025000,Units=km
new line.SMT_10926973 bus1=BMT179220575.1.2.3,bus2=BMT3972781B.1.2.3,Phases=3,Linecode=CABA06_3_3_3,Length=0.021477000,Units=km
new line.SMT_10926980 bus1=BMT3972781B.1.2.3,bus2=BMT179220576.1.2.3,Phases=3,Linecode=CABA06_3_3_3,Length=0.018033000,Units=km
new line.SMT_10927022 bus1=BMT179220576.1.2.3,bus2=BMT7169192B.1.2.3,Phases=3,Linecode=CABA06_3_3_3,Length=0.024194000,Units=km
new line.SMT_1130291 bus1=BMT179220111.1.2.3,bus2=BMT179220112.1.2.3,Phases=3,Linecode=CABA06_3_3_3,Length=0.034141000,Units=km
new line.SMT_1130298 bus1=BMT179220112.1.2.3,bus2=BMT754146B.1.2.3,Phases=3,Linecode=CABA06_3_3_3,Length=0.036725000,Units=km
new line.SMT_1130319 bus1=BMT183194140.1.2.3,bus2=BMT183194141.1.2.3,Phases=3,Linecode=CABA06_3_3_3,Length=0.038598000,Units=km
new line.SMT_1130347 bus1=BMT179220416.1.2.3,bus2=BMT179220417.1.2.3,Phases=3,Linecode=CABA06_3_3_3,Length=0.015816000,Units=km
new line.SMT_1130389 bus1=BMT179987474.1.2.3,bus2=BMT179987480.1.2.3,Phases=3,Linecode=CABA06_3_3_3,Length=0.028852000,Units=km
new line.SMT_1130403 bus1=BMT179987471.1.2.3,bus2=BMT179987473.1.2.3,Phases=3,Linecode=CABA06_3_3_3,Length=0.027521000,Units=km
new line.SMT_1130417 bus1=BMT754216B.1.2.3,bus2=BMT179987471.1.2.3,Phases=3,Linecode=CABA06_3_3_3,Length=0.038959000,Units=km
new line.SMT_1130431 bus1=BMT182021547.1.2.3,bus2=BMT179987480.1.2.3,Phases=3,Linecode=CABA06_3_3_3,Length=0.017498000,Units=km
new line.SMT_1130445 bus1=BMT754230B.1.2.3,bus2=BMT754216B.1.2.3,Phases=3,Linecode=CABA06_3_3_3,Length=0.035857000,Units=km
new line.SMT_1130459 bus1=BMT754237B.1.2.3,bus2=BMT754251B.1.2.3,Phases=3,Linecode=CABA06_3_3_3,Length=0.029163000,Units=km
new line.SMT_1130473 bus1=BMT754244B.1.2.3,bus2=BMT754230B.1.2.3,Phases=3,Linecode=CABA06_3_3_3,Length=0.039835000,Units=km
new line.SMT_1130487 bus1=BMT754251B.1.2.3,bus2=BMT182021548.1.2.3,Phases=3,Linecode=CABA06_3_3_3,Length=0.026933000,Units=km
new line.SMT_1130494 bus1=BMT182021548.1.2.3,bus2=BMT754279B.1.2.3,Phases=3,Linecode=CABA06_3_3_3,Length=0.029740000,Units=km
new line.SMT_1130501 bus1=BMT182021548.1.2.3,bus2=BMT182021550.1.2.3,Phases=3,Linecode=CABA06_3_3_3,Length=0.039126000,Units=km
new line.SMT_1130522 bus1=BMT754279B.1.2.3,bus2=BMT754286B.1.2.3,Phases=3,Linecode=CABA06_3_3_3,Length=0.039011000,Units=km
new line.SMT_1130536 bus1=BMT754286B.1.2.3,bus2=BMT182021549.1.2.3,Phases=3,Linecode=CABA06_3_3_3,Length=0.038637000,Units=km
new line.SMT_1130557 bus1=BMT183226154.1.2.3,bus2=BMT754356B.1.2.3,Phases=3,Linecode=CAB103_3_3_3,Length=0.040011000,Units=km
new line.SMT_1130571 bus1=BMT754349B.1.2.3,bus2=BMT183226146.1.2.3,Phases=3,Linecode=CAB103_3_3_3,Length=0.035010000,Units=km
new line.SMT_1130585 bus1=BMT754363B.1.2.3,bus2=BMT754349B.1.2.3,Phases=3,Linecode=CAB103_3_3_3,Length=0.039215000,Units=km
new line.SMT_1130592 bus1=BMT754363B.1.2.3,bus2=BMT754356B.1.2.3,Phases=3,Linecode=CAB103_3_3_3,Length=0.035010000,Units=km
new line.SMT_1130606 bus1=BMT754377B.1.2.3,bus2=BMT754384B.1.2.3,Phases=3,Linecode=CAB103_3_3_3,Length=0.038611000,Units=km
new line.SMT_1130620 bus1=BMT754384B.1.2.3,bus2=BMT754398B.1.2.3,Phases=3,Linecode=CAB103_3_3_3,Length=0.037812000,Units=km
new line.SMT_1130641 bus1=BMT754398B.1.2.3,bus2=BMT754405B.1.2.3,Phases=3,Linecode=CAB103_3_3_3,Length=0.041412000,Units=km
new line.SMT_1130655 bus1=BMT754405B.1.2.3,bus2=BMT754412B.1.2.3,Phases=3,Linecode=CAB103_3_3_3,Length=0.037212000,Units=km
new line.SMT_1130669 bus1=BMT754412B.1.2.3,bus2=BMT183226153.1.2.3,Phases=3,Linecode=CAB103_3_3_3,Length=0.038611000,Units=km
new line.SMT_1130795 bus1=BMT754489B.1.2.3,bus2=BMT179220658.1.2.3,Phases=3,Linecode=CABA08_3_3_3,Length=0.034995000,Units=km
new line.SMT_11308074 bus1=BMT179220414.1.2.3,bus2=BMT3195305B.1.2.3,Phases=3,Linecode=CABA06_3_3_3,Length=0.036245000,Units=km
new line.SMT_11308081 bus1=BMT3195305B.1.2.3,bus2=BMT183194142.1.2.3,Phases=3,Linecode=CABA06_3_3_3,Length=0.030471000,Units=km
new line.SMT_11308088 bus1=BMT183194142.1.2.3,bus2=BMT4027094B.1.2.3,Phases=3,Linecode=CABA06_3_3_3,Length=0.034491000,Units=km
new line.SMT_1130809 bus1=BMT754496B.1.2.3,bus2=BMT754489B.1.2.3,Phases=3,Linecode=CABA08_3_3_3,Length=0.008547000,Units=km
new line.SMT_1130816 bus1=BMT754496B.1.2.3,bus2=BMT179220657.1.2.3,Phases=3,Linecode=CABA08_3_3_3,Length=0.018873000,Units=km
new line.SMT_1130823 bus1=BMT754503B.1.2.3,bus2=BMT181195712.1.2.3,Phases=3,Linecode=CABA06_3_3_3,Length=0.042556000,Units=km
new line.SMT_1130844 bus1=BMT754510B.1.2.3,bus2=BMT754503B.1.2.3,Phases=3,Linecode=CABA06_3_3_3,Length=0.046154000,Units=km
new line.SMT_1130865 bus1=BMT754517B.1.2.3,bus2=BMT754510B.1.2.3,Phases=3,Linecode=CABA06_3_3_3,Length=0.042556000,Units=km
new line.SMT_1130879 bus1=BMT754524B.1.2.3,bus2=BMT754517B.1.2.3,Phases=3,Linecode=CABA06_3_3_3,Length=0.041194000,Units=km
new line.SMT_1130921 bus1=BMT179220478.1.2.3,bus2=BMT754524B.1.2.3,Phases=3,Linecode=CABA06_3_3_3,Length=0.040322000,Units=km
new line.SMT_1130928 bus1=BMT179220527.1.2.3,bus2=BMT179220528.1.2.3,Phases=3,Linecode=CABA06_3_3_3,Length=0.037226000,Units=km
new line.SMT_1130949 bus1=BMT754559B.1.2.3,bus2=BMT179220478.1.2.3,Phases=3,Linecode=CABA06_3_3_3,Length=0.038598000,Units=km
new line.SMT_1130991 bus1=BMT181195711.1.2.3,bus2=BMT754559B.1.2.3,Phases=3,Linecode=CABA06_3_3_3,Length=0.039457000,Units=km
new line.SMT_1131012 bus1=BMT754615B.1.2.3,bus2=BMT181195710.1.2.3,Phases=3,Linecode=CABA06_3_3_3,Length=0.036725000,Units=km
new line.SMT_1129262 bus1=BMT179220118.1.2.3,bus2=BMT179220120.1.2.3,Phases=3,Linecode=CABA08_3_3_3,Length=0.043474000,Units=km
new line.SMT_1129276 bus1=BMT179220128.1.2.3,bus2=BMT179220129.1.2.3,Phases=3,Linecode=CABA06_3_3_3,Length=0.038089000,Units=km
new line.SMT_1129283 bus1=BMT179220147.1.2.3,bus2=BMT179220148.1.2.3,Phases=3,Linecode=CABA08_3_3_3,Length=0.048034000,Units=km
new line.SMT_1129290 bus1=BMT753635B.1.2.3,bus2=BMT179220141.1.2.3,Phases=3,Linecode=CAB103_3_3_3,Length=0.015004000,Units=km
new line.SMT_1129297 bus1=BMT753642B.1.2.3,bus2=BMT179220149.1.2.3,Phases=3,Linecode=CABA08_3_3_3,Length=0.028852000,Units=km
new line.SMT_1129304 bus1=BMT181704870.1.2.3,bus2=BMT753656B.1.2.3,Phases=3,Linecode=CABA06_3_3_3,Length=0.039457000,Units=km
new line.SMT_1129311 bus1=BMT179220149.1.2.3,bus2=BMT179220150.1.2.3,Phases=3,Linecode=CABA08_3_3_3,Length=0.050620000,Units=km
new line.SMT_1129318 bus1=BMT753656B.1.2.3,bus2=BMT181704871.1.2.3,Phases=3,Linecode=CABA06_3_3_3,Length=0.039457000,Units=km
new line.SMT_1129332 bus1=BMT181704871.1.2.3,bus2=BMT753670B.1.2.3,Phases=3,Linecode=CABA06_3_3_3,Length=0.040322000,Units=km
new line.SMT_1129346 bus1=BMT753670B.1.2.3,bus2=BMT181704872.1.2.3,Phases=3,Linecode=CABA06_3_3_3,Length=0.038598000,Units=km
new line.SMT_1129388 bus1=BMT753691B.1.2.3,bus2=BMT179220098.1.2.3,Phases=3,Linecode=CABA08_3_3_3,Length=0.035857000,Units=km
new line.SMT_1129402 bus1=BMT179220098.1.2.3,bus2=BMT179220101.1.2.3,Phases=3,Linecode=CABA07_3_3_3,Length=0.039973000,Units=km
new line.SMT_1129409 bus1=BMT179220098.1.2.3,bus2=BMT179220102.1.2.3,Phases=3,Linecode=CABA08_3_3_3,Length=0.034995000,Units=km
new line.SMT_1129423 bus1=BMT179220108.1.2.3,bus2=BMT753761B.1.2.3,Phases=3,Linecode=CABA07_3_3_3,Length=0.039457000,Units=km
new line.SMT_1129444 bus1=BMT179220102.1.2.3,bus2=BMT179220103.1.2.3,Phases=3,Linecode=CABA08_3_3_3,Length=0.035857000,Units=km
new line.SMT_1129465 bus1=BMT179220103.1.2.3,bus2=BMT179220104.1.2.3,Phases=3,Linecode=CABA06_3_3_3,Length=0.022832000,Units=km
new line.SMT_1129472 bus1=BMT179220103.1.2.3,bus2=BMT179220105.1.2.3,Phases=3,Linecode=CABA08_3_3_3,Length=0.036369000,Units=km
new line.SMT_1129493 bus1=BMT179220110.1.2.3,bus2=BMT179220111.1.2.3,Phases=3,Linecode=CAB103_3_3_3,Length=0.031121000,Units=km
new line.SMT_1129521 bus1=BMT179220105.1.2.3,bus2=BMT753747B.1.2.3,Phases=3,Linecode=CABA08_3_3_3,Length=0.035365000,Units=km
new line.SMT_1129542 bus1=BMT179220113.1.2.3,bus2=BMT179220114.1.2.3,Phases=3,Linecode=CABA08_3_3_3,Length=0.030895000,Units=km
new line.SMT_1129556 bus1=BMT753747B.1.2.3,bus2=BMT179220106.1.2.3,Phases=3,Linecode=CABA08_3_3_3,Length=0.030895000,Units=km
new line.SMT_1129584 bus1=BMT753761B.1.2.3,bus2=BMT753768B.1.2.3,Phases=3,Linecode=CABA07_3_3_3,Length=0.040828000,Units=km
new line.SMT_1129605 bus1=BMT753768B.1.2.3,bus2=BMT179220109.1.2.3,Phases=3,Linecode=CABA07_3_3_3,Length=0.037600000,Units=km
new line.SMT_1129654 bus1=BMT179220437.1.2.3,bus2=BMT753824B.1.2.3,Phases=3,Linecode=CABA06_3_3_3,Length=0.026084000,Units=km
new line.SMT_1129668 bus1=BMT753824B.1.2.3,bus2=BMT179220438.1.2.3,Phases=3,Linecode=CABA06_3_3_3,Length=0.017005000,Units=km
new line.SMT_1129689 bus1=BMT179220428.1.2.3,bus2=BMT179220430.1.2.3,Phases=3,Linecode=CABA06_3_3_3,Length=0.031393000,Units=km
new line.SMT_1129696 bus1=BMT179220428.1.2.3,bus2=BMT179220431.1.2.3,Phases=3,Linecode=CABA06_3_3_3,Length=0.040322000,Units=km
new line.SMT_1129703 bus1=BMT179220436.1.2.3,bus2=BMT179220437.1.2.3,Phases=3,Linecode=CABA06_3_3_3,Length=0.036725000,Units=km
new line.SMT_1129710 bus1=BMT179220441.1.2.3,bus2=BMT179220442.1.2.3,Phases=3,Linecode=CAB902_4_3_3,Length=0.009437000,Units=km
new line.SMT_1129731 bus1=BMT179220430.1.2.3,bus2=BMT179220433.1.2.3,Phases=3,Linecode=CABA06_3_3_3,Length=0.030422000,Units=km
new line.SMT_1129752 bus1=BMT179220433.1.2.3,bus2=BMT179220434.1.2.3,Phases=3,Linecode=CABA06_3_3_3,Length=0.036079000,Units=km
new line.SMT_1129759 bus1=BMT179220433.1.2.3,bus2=BMT179220435.1.2.3,Phases=3,Linecode=CABA06_3_3_3,Length=0.041194000,Units=km
new line.SMT_1129801 bus1=BMT183194061.1.2.3,bus2=BMT179220444.1.2.3,Phases=3,Linecode=CABA06_3_3_3,Length=0.041121000,Units=km
new line.SMT_1129829 bus1=BMT753922B.1.2.3,bus2=BMT181195707.1.2.3,Phases=3,Linecode=CABA06_3_3_3,Length=0.039973000,Units=km
new line.SMT_1129843 bus1=BMT179220422.1.2.3,bus2=BMT179220423.1.2.3,Phases=3,Linecode=CABA08_3_3_3,Length=0.033625000,Units=km
new line.SMT_1129857 bus1=BMT179220423.1.2.3,bus2=BMT179220424.1.2.3,Phases=3,Linecode=CABA06_3_3_3,Length=0.032258000,Units=km
new line.SMT_1129878 bus1=BMT181195706.1.2.3,bus2=BMT753922B.1.2.3,Phases=3,Linecode=CABA06_3_3_3,Length=0.046154000,Units=km
new line.SMT_11298813 bus1=BMT179987918.1.2.3,bus2=BMT179987917.1.2.3,Phases=3,Linecode=CAB104_3_3_3,Length=0.014040000,Units=km
new line.SMT_11298820 bus1=BMT761167B.1.2.3,bus2=BMT179987917.1.2.3,Phases=3,Linecode=CAB104_3_3_3,Length=0.029283000,Units=km
new line.SMT_11298827 bus1=BMT179987917.1.2.3,bus2=BMT761195B.1.2.3,Phases=3,Linecode=CABA06_3_3_3,Length=0.050103000,Units=km
new line.SMT_11298834 bus1=BMT761195B.1.2.3,bus2=BMT179987919.1.2.3,Phases=3,Linecode=CABA06_3_3_3,Length=0.038063000,Units=km
new line.SMT_1129892 bus1=BMT179220425.1.2.3,bus2=BMT753957B.1.2.3,Phases=3,Linecode=CABA06_3_3_3,Length=0.032766000,Units=km
new line.SMT_1129913 bus1=BMT753957B.1.2.3,bus2=BMT753971B.1.2.3,Phases=3,Linecode=CABA06_3_3_3,Length=0.032258000,Units=km
new line.SMT_10211258 bus1=BMT179220536.1.2.3,bus2=BMT6378199B.1.2.3,Phases=3,Linecode=CABA06_3_3_3,Length=0.038598000,Units=km
new line.SMT_10211265 bus1=BMT6378199B.1.2.3,bus2=BMT179220537.1.2.3,Phases=3,Linecode=CABA06_3_3_3,Length=0.035857000,Units=km
new line.SMT_1132783 bus1=BMT755826B.1.2.3,bus2=BMT755819B.1.2.3,Phases=3,Linecode=CABA08_3_3_3,Length=0.043116000,Units=km
new line.SMT_1132804 bus1=BMT755833B.1.2.3,bus2=BMT755826B.1.2.3,Phases=3,Linecode=CABA08_3_3_3,Length=0.044023000,Units=km
new line.SMT_1132811 bus1=BMT755840B.1.2.3,bus2=BMT755833B.1.2.3,Phases=3,Linecode=CABA08_3_3_3,Length=0.046056000,Units=km
new line.SMT_1132818 bus1=BMT755847B.1.2.3,bus2=BMT755840B.1.2.3,Phases=3,Linecode=CABA08_3_3_3,Length=0.038023000,Units=km
new line.SMT_1132825 bus1=BMT179987412.1.2.3,bus2=BMT755847B.1.2.3,Phases=3,Linecode=CABA08_3_3_3,Length=0.063088000,Units=km
new line.SMT_1132832 bus1=BMT755861B.1.2.3,bus2=BMT3056824B.1.2.3,Phases=3,Linecode=CABA08_3_3_3,Length=0.048107000,Units=km
new line.SMT_1132846 bus1=BMT179987410.1.2.3,bus2=BMT755861B.1.2.3,Phases=3,Linecode=CABA08_3_3_3,Length=0.052100000,Units=km
new line.SMT_1132972 bus1=BMT755931B.1.2.3,bus2=BMT755938B.1.2.3,Phases=3,Linecode=CABA06_3_3_3,Length=0.054051000,Units=km
new line.SMT_1132986 bus1=BMT755938B.1.2.3,bus2=BMT179987954.1.2.3,Phases=3,Linecode=CABA06_3_3_3,Length=0.048107000,Units=km
new line.SMT_1132993 bus1=BMT179987953.1.2.3,bus2=BMT755931B.1.2.3,Phases=3,Linecode=CABA06_3_3_3,Length=0.034141000,Units=km
new line.SMT_1133000 bus1=BMT755952B.1.2.3,bus2=BMT179987953.1.2.3,Phases=3,Linecode=CABA06_3_3_3,Length=0.051053000,Units=km
new line.SMT_1133007 bus1=BMT755959B.1.2.3,bus2=BMT3344783B.1.2.3,Phases=3,Linecode=CABA06_3_3_3,Length=0.035024000,Units=km
new line.SMT_1133021 bus1=BMT180137786.1,bus2=BMT755987B.1,Phases=1,Linecode=CAB103_3_1_1,Length=0.039634000,Units=km
new line.SMT_1133028 bus1=BMT180137786.1.2.3,bus2=BMT756162B.1.2.3,Phases=3,Linecode=CAB103_3_3_3,Length=0.045980000,Units=km
new line.SMT_1133042 bus1=BMT755994B.1,bus2=BMT755987B.1,Phases=1,Linecode=CAB103_3_1_1,Length=0.046023000,Units=km
new line.SMT_1133049 bus1=BMT755994B.1,bus2=BMT756001B.1,Phases=1,Linecode=CAB103_3_1_1,Length=0.040123000,Units=km
new line.SMT_1133056 bus1=BMT756001B.1,bus2=BMT180137787.1,Phases=1,Linecode=CAB103_3_1_1,Length=0.040123000,Units=km
new line.SMT_1133084 bus1=BMT179220689.1.2.3,bus2=BMT756036B.1.2.3,Phases=3,Linecode=CABA06_3_3_3,Length=0.046078000,Units=km
new line.SMT_1133091 bus1=BMT179220689.1.2.3,bus2=BMT756043B.1.2.3,Phases=3,Linecode=CABA06_3_3_3,Length=0.033625000,Units=km
new line.SMT_1133112 bus1=BMT756036B.1.2.3,bus2=BMT179220690.1.2.3,Phases=3,Linecode=CABA06_3_3_3,Length=0.048891000,Units=km
new line.SMT_1133126 bus1=BMT756043B.1.2.3,bus2=BMT757261B.1.2.3,Phases=3,Linecode=CABA06_3_3_3,Length=0.035365000,Units=km
new line.SMT_1133133 bus1=BMT179220690.1.2.3,bus2=BMT756057B.1.2.3,Phases=3,Linecode=CABA06_3_3_3,Length=0.047023000,Units=km
new line.SMT_1133140 bus1=BMT756057B.1.2.3,bus2=BMT2601873B.1.2.3,Phases=3,Linecode=CABA06_3_3_3,Length=0.048387000,Units=km
new line.SMT_1133161 bus1=BMT182367228.1.2.3,bus2=BMT182367229.1.2.3,Phases=3,Linecode=CABA06_3_3_3,Length=0.036065000,Units=km
new line.SMT_1133168 bus1=BMT182367228.1.2.3,bus2=BMT180253364.1.2.3,Phases=3,Linecode=CABA06_3_3_3,Length=0.034679000,Units=km
new line.SMT_1133189 bus1=BMT182367230.1.2.3,bus2=BMT3185701B.1.2.3,Phases=3,Linecode=CABA08_3_3_3,Length=0.032258000,Units=km
new line.SMT_1133224 bus1=BMT756092B.1.2.3,bus2=BMT182367230.1.2.3,Phases=3,Linecode=CABA08_3_3_3,Length=0.033625000,Units=km
new line.SMT_1133238 bus1=BMT756099B.1.2.3,bus2=BMT756092B.1.2.3,Phases=3,Linecode=CABA08_3_3_3,Length=0.034491000,Units=km
new line.SMT_1133280 bus1=BMT756113B.1.2.3,bus2=BMT756099B.1.2.3,Phases=3,Linecode=CABA08_3_3_3,Length=0.032258000,Units=km
new line.SMT_1133287 bus1=BMT756113B.1.2.3,bus2=BMT182367231.1.2.3,Phases=3,Linecode=CABA08_3_3_3,Length=0.035857000,Units=km
new line.SMT_1133308 bus1=BMT182367231.1.2.3,bus2=BMT182367232.1.2.3,Phases=3,Linecode=CABA08_3_3_3,Length=0.037746000,Units=km
new line.SMT_1133350 bus1=BMT179220671.1.2.3,bus2=BMT182367232.1.2.3,Phases=3,Linecode=CABA08_3_3_3,Length=0.021961000,Units=km
new line.SMT_1133364 bus1=BMT756148B.1.2.3,bus2=BMT179220675.1.2.3,Phases=3,Linecode=CABA08_3_3_3,Length=0.034009000,Units=km
new line.SMT_1133378 bus1=BMT756162B.1.2.3,bus2=BMT756169B.1.2.3,Phases=3,Linecode=CAB103_3_3_3,Length=0.034215000,Units=km
new line.SMT_1133406 bus1=BMT756183B.1.2.3,bus2=BMT180137789.1.2.3,Phases=3,Linecode=CAB103_3_3_3,Length=0.049054000,Units=km
new line.SMT_1133413 bus1=BMT756183B.1.2.3,bus2=BMT756197B.1.2.3,Phases=3,Linecode=CAB103_3_3_3,Length=0.054162000,Units=km
new line.SMT_1133420 bus1=BMT179987687.3,bus2=BMT179987688.3,Phases=1,Linecode=CAB103_3_1_1,Length=0.045057000,Units=km
new line.SMT_1133448 bus1=BMT756204B.1.2.3,bus2=BMT179987682.1.2.3,Phases=3,Linecode=CABA06_3_3_3,Length=0.035024000,Units=km
new line.SMT_1133455 bus1=BMT179987680.1.2.3,bus2=BMT756232B.1.2.3,Phases=3,Linecode=CABA06_3_3_3,Length=0.044023000,Units=km
new line.SMT_1133483 bus1=BMT756218B.3,bus2=BMT3159493B.3,Phases=1,Linecode=CAB103_3_1_1,Length=0.052168000,Units=km
new line.SMT_1133504 bus1=BMT179987681.1.2.3,bus2=BMT756204B.1.2.3,Phases=3,Linecode=CABA06_3_3_3,Length=0.038023000,Units=km
new line.SMT_1133525 bus1=BMT756232B.1.2.3,bus2=BMT179987681.1.2.3,Phases=3,Linecode=CABA06_3_3_3,Length=0.041121000,Units=km
new line.SMT_1131040 bus1=BMT754643B.1.2.3,bus2=BMT754615B.1.2.3,Phases=3,Linecode=CABA06_3_3_3,Length=0.038089000,Units=km
new line.SMT_1131068 bus1=BMT179220473.1.2.3,bus2=BMT754643B.1.2.3,Phases=3,Linecode=CABA06_3_3_3,Length=0.037226000,Units=km
new line.SMT_1131096 bus1=BMT181195707.1.2.3,bus2=BMT179220473.1.2.3,Phases=3,Linecode=CABA06_3_3_3,Length=0.038598000,Units=km
new line.SMT_1131103 bus1=BMT181195707.1.2.3,bus2=BMT2602244B.1.2.3,Phases=3,Linecode=CABA06_3_3_3,Length=0.034895000,Units=km
new line.SMT_1131117 bus1=BMT179220695.1.2.3,bus2=BMT754741B.1.2.3,Phases=3,Linecode=CABA06_3_3_3,Length=0.038959000,Units=km
new line.SMT_1131124 bus1=BMT179220695.1.2.3,bus2=BMT179220696.1.2.3,Phases=3,Linecode=CABA06_3_3_3,Length=0.040828000,Units=km
new line.SMT_1131159 bus1=BMT754741B.1.2.3,bus2=BMT754755B.1.2.3,Phases=3,Linecode=CABA06_3_3_3,Length=0.033130000,Units=km
new line.SMT_1131222 bus1=BMT754776B.1.2.3,bus2=BMT179987459.1.2.3,Phases=3,Linecode=CABA06_3_3_3,Length=0.033130000,Units=km
new line.SMT_1131229 bus1=BMT179987459.1.2.3,bus2=BMT179987461.1.2.3,Phases=3,Linecode=CABA06_3_3_3,Length=0.031393000,Units=km
new line.SMT_1131236 bus1=BMT179987461.1.2.3,bus2=BMT755042B.1.2.3,Phases=3,Linecode=CABA06_3_3_3,Length=0.049753000,Units=km
new line.SMT_1131243 bus1=BMT179987461.1.2.3,bus2=BMT179987463.1.2.3,Phases=3,Linecode=CABA06_3_3_3,Length=0.036369000,Units=km
new line.SMT_1131278 bus1=BMT179220646.1.2.3,bus2=BMT754846B.1.2.3,Phases=3,Linecode=CABA08_3_3_3,Length=0.036369000,Units=km
new line.SMT_1131292 bus1=BMT754839B.1.2.3,bus2=BMT179220645.1.2.3,Phases=3,Linecode=CABA08_3_3_3,Length=0.040508000,Units=km
new line.SMT_1131306 bus1=BMT754846B.1.2.3,bus2=BMT754839B.1.2.3,Phases=3,Linecode=CABA08_3_3_3,Length=0.036369000,Units=km
new line.SMT_1131390 bus1=BMT754895B.1.2.3,bus2=BMT3986312B.1.2.3,Phases=3,Linecode=CABA08_3_3_3,Length=0.032766000,Units=km
new line.SMT_1131404 bus1=BMT179220059.1.2.3,bus2=BMT754895B.1.2.3,Phases=3,Linecode=CABA08_3_3_3,Length=0.026933000,Units=km
new line.SMT_1131411 bus1=BMT179220059.1.2.3,bus2=BMT179220060.1.2.3,Phases=3,Linecode=CABA08_3_3_3,Length=0.039973000,Units=km
new line.SMT_1131418 bus1=BMT179220568.1.2.3,bus2=BMT3986319B.1.2.3,Phases=3,Linecode=CABA06_3_3_3,Length=0.034491000,Units=km
new line.SMT_1131439 bus1=BMT754909B.1.2.3,bus2=BMT179220060.1.2.3,Phases=3,Linecode=CABA08_3_3_3,Length=0.031393000,Units=km
new line.SMT_1131453 bus1=BMT183771978.1.2.3,bus2=BMT754930B.1.2.3,Phases=3,Linecode=CABA08_3_3_3,Length=0.038598000,Units=km
new line.SMT_1131460 bus1=BMT183771978.1.2.3,bus2=BMT183771980.1.2.3,Phases=3,Linecode=CABA06_3_3_3,Length=0.030537000,Units=km
new line.SMT_1131467 bus1=BMT183771978.1.2.3,bus2=BMT179220067.1.2.3,Phases=3,Linecode=CABA06_3_3_3,Length=0.043428000,Units=km
new line.SMT_1131488 bus1=BMT179220061.1.2.3,bus2=BMT754909B.1.2.3,Phases=3,Linecode=CABA08_3_3_3,Length=0.031915000,Units=km
new line.SMT_1131502 bus1=BMT754930B.1.2.3,bus2=BMT3713858B.1.2.3,Phases=3,Linecode=CABA08_3_3_3,Length=0.031774000,Units=km
new line.SMT_1131628 bus1=BMT179987462.1.2.3,bus2=BMT758416B.1.2.3,Phases=3,Linecode=CABA06_3_3_3,Length=0.037600000,Units=km
new line.SMT_1131635 bus1=BMT755028B.1.2.3,bus2=BMT179987462.1.2.3,Phases=3,Linecode=CABA06_3_3_3,Length=0.045289000,Units=km
...
