2024_89_CemigReconfigurationCases/1_SEsCemig/MDH06/MDH06SegmentosBT.dss
new line.SBT_11359398 bus1=3402876.1.2.0,bus2=3402883.1.2.0,Phases=2,Linecode=BT810_BT810_4_2_4_2,Length=0.034024000,Units=km
new line.SBT_11359412 bus1=3402883.1.2.0,bus2=3402890.1.2.0,Phases=2,Linecode=BT810_BT810_4_2_4_2,Length=0.031266000,Units=km
new line.SBT_12030663 bus1=3636319.1.2.3.0,bus2=3636326.1.2.3.0,Phases=3,Linecode=BT810_BT810_4_3_4_3,Length=0.043921000,Units=km
new line.SBT_12030691 bus1=3636326.1.2.3.0,bus2=4144183.1.2.3.0,Phases=3,Linecode=BT810_BT810_4_3_4_3,Length=0.034995000,Units=km
new line.SBT_12381566 bus1=3807245.1.2.3.0,bus2=875988.1.2.3.0,Phases=3,Linecode=BT803_BT803_4_3_4_3,Length=0.048778000,Units=km
new line.SBT_12383323 bus1=3807259.1.2.0,bus2=875981.1.2.0,Phases=2,Linecode=BT807_BT807_4_2_3_2,Length=0.034491000,Units=km
new line.SBT_12763892 bus1=4246460.1.2.3.0,bus2=4246467.1.2.3.0,Phases=3,Linecode=BT810_BT810_4_3_4_3,Length=0.042438000,Units=km
new line.SBT_12763920 bus1=4246467.1.2.3.0,bus2=4246481.1.2.3.0,Phases=3,Linecode=BT810_BT810_4_3_4_3,Length=0.017122000,Units=km
new line.SBT_12764781 bus1=4018337.1.2.3.0,bus2=47725862.1.2.3.0,Phases=3,Linecode=BT518_BT518_7_3_1_3,Length=0.000501000,Units=km
new line.SBT_12764788 bus1=4018344.1.2.3.0,bus2=47732750.1.2.3.0,Phases=3,Linecode=BT513_BT513_5_3_1_3,Length=0.005659000,Units=km
new line.SBT_12765915 bus1=4019177.1.2.3.0,bus2=47732757.1.2.3.0,Phases=3,Linecode=BT513_BT513_5_3_1_3,Length=0.006405000,Units=km
new line.SBT_12765922 bus1=4019177.1.2.3.0,bus2=47734290.1.2.3.0,Phases=3,Linecode=BT513_BT513_5_3_1_3,Length=0.021639000,Units=km
new line.SBT_12765999 bus1=4019268.1.2.3.0,bus2=47734822.1.2.3.0,Phases=3,Linecode=BT513_BT513_5_3_1_3,Length=0.005833000,Units=km
new line.SBT_12766020 bus1=4019184.1.2.3.0,bus2=4019191.1.2.3.0,Phases=3,Linecode=BT513_BT513_5_3_1_3,Length=0.055486000,Units=km
new line.SBT_12766055 bus1=4019275.1.2.3.0,bus2=47738357.1.2.3.0,Phases=3,Linecode=BT513_BT513_5_3_1_3,Length=0.049662000,Units=km
new line.SBT_12766153 bus1=4019282.1.2.3.0,bus2=47740443.1.2.3.0,Phases=3,Linecode=BT513_BT513_5_3_1_3,Length=0.049662000,Units=km
new line.SBT_12766167 bus1=4019289.1.2.3.0,bus2=4019296.1.2.3.0,Phases=3,Linecode=BT513_BT513_5_3_1_3,Length=0.056318000,Units=km
new line.SBT_12766188 bus1=4019296.1.2.3.0,bus2=4019303.1.2.3.0,Phases=3,Linecode=BT513_BT513_5_3_1_3,Length=0.056051000,Units=km
new line.SBT_12766216 bus1=4019303.1.2.3.0,bus2=4019310.1.2.3.0,Phases=3,Linecode=BT513_BT513_5_3_1_3,Length=0.054933000,Units=km
new line.SBT_12766237 bus1=4019310.1.2.3.0,bus2=4019317.1.2.3.0,Phases=3,Linecode=BT513_BT513_5_3_1_3,Length=0.054659000,Units=km
new line.SBT_12766251 bus1=4019317.1.2.3.0,bus2=4019324.1.2.3.0,Phases=3,Linecode=BT513_BT513_5_3_1_3,Length=0.059924000,Units=km
new line.SBT_12766265 bus1=4019324.1.2.3.0,bus2=4019331.1.2.3.0,Phases=3,Linecode=BT513_BT513_5_3_1_3,Length=0.056318000,Units=km
new line.SBT_12766286 bus1=4019331.1.2.3.0,bus2=4019338.1.2.3.0,Phases=3,Linecode=BT513_BT513_5_3_1_3,Length=0.055818000,Units=km
new line.SBT_12766300 bus1=4019338.1.2.3.0,bus2=4019345.1.2.3.0,Phases=3,Linecode=BT513_BT513_5_3_1_3,Length=0.055961000,Units=km
new line.SBT_12766314 bus1=4019345.1.2.3.0,bus2=4019352.1.2.3.0,Phases=3,Linecode=BT513_BT513_5_3_1_3,Length=0.055051000,Units=km
new line.SBT_12766335 bus1=4019352.1.2.3.0,bus2=4019366.1.2.3.0,Phases=3,Linecode=BT513_BT513_5_3_1_3,Length=0.056336000,Units=km
new line.SBT_12766356 bus1=4019366.1.2.3.0,bus2=4019373.1.2.3.0,Phases=3,Linecode=BT513_BT513_5_3_1_3,Length=0.056336000,Units=km
new line.SBT_12766426 bus1=4019191.1.2.3.0,bus2=4019198.1.2.3.0,Phases=3,Linecode=BT513_BT513_5_3_1_3,Length=0.056318000,Units=km
new line.SBT_12766440 bus1=4019198.1.2.3.0,bus2=4019205.1.2.3.0,Phases=3,Linecode=BT513_BT513_5_3_1_3,Length=0.056095000,Units=km
new line.SBT_12766461 bus1=4019205.1.2.3.0,bus2=4019212.1.2.3.0,Phases=3,Linecode=BT513_BT513_5_3_1_3,Length=0.055242000,Units=km
new line.SBT_12766475 bus1=4019212.1.2.3.0,bus2=4019219.1.2.3.0,Phases=3,Linecode=BT513_BT513_5_3_1_3,Length=0.055024000,Units=km
new line.SBT_12766489 bus1=4019219.1.2.3.0,bus2=4019226.1.2.3.0,Phases=3,Linecode=BT513_BT513_5_3_1_3,Length=0.055051000,Units=km
new line.SBT_12766510 bus1=4019226.1.2.3.0,bus2=4019233.1.2.3.0,Phases=3,Linecode=BT513_BT513_5_3_1_3,Length=0.055728000,Units=km
new line.SBT_12766531 bus1=4019233.1.2.3.0,bus2=4019240.1.2.3.0,Phases=3,Linecode=BT513_BT513_5_3_1_3,Length=0.054723000,Units=km
new line.SBT_12766545 bus1=4019240.1.2.3.0,bus2=4019247.1.2.3.0,Phases=3,Linecode=BT513_BT513_5_3_1_3,Length=0.055096000,Units=km
new line.SBT_12766566 bus1=4019247.1.2.3.0,bus2=4021480.1.2.3.0,Phases=3,Linecode=BT513_BT513_5_3_1_3,Length=0.049491000,Units=km
new line.SBT_12766629 bus1=4019478.1.2.3.0,bus2=4019485.1.2.3.0,Phases=3,Linecode=BT513_BT513_5_3_1_3,Length=0.055097000,Units=km
new line.SBT_12766643 bus1=4019471.1.2.3.0,bus2=4019478.1.2.3.0,Phases=3,Linecode=BT513_BT513_5_3_1_3,Length=0.056060000,Units=km
...